src/tests/data/grids/RAW/ACTIVSg2000_rename.raw
@!IC, SBASE,REV,XFRRAT,NXFRAT,BASFRQ
0,   100.00, 34,     0,     0, 60.00     / PSS(R)E-34.6    WED, JAN 31 2024  13:17
THIS IS A SYNTHETIC POWER SYSTEM MODEL THAT DOES NOT REPRESE
DATA RESEARCH PROJECT AND CONTAINS NO CEII.
GENERAL, THRSHZ=0.0001, PQBRAK=0.7, BLOWUP=5.0
GAUSS, ITMX=100, ACCP=1.6, ACCQ=1.6, ACCM=1.0, TOL=0.0001
NEWTON, ITMXN=20, ACCN=1.0, TOLN=0.1, VCTOLQ=0.1, VCTOLV=0.00001, DVLIM=0.99, NDVFCT=0.99
ADJUST, ADJTHR=0.005, ACCTAP=1.0, TAPLIM=0.05, SWVBND=100.0, MXTPSS=99, MXSWIM=10
TYSL, ITMXTY=20, ACCTY=1.0, TOLTY=0.00001
RATING, 1, "RATE1 ", "RATING SET 1                    "
RATING, 2, "RATE2 ", "RATING SET 2                    "
RATING, 3, "RATE3 ", "RATING SET 3                    "
RATING, 4, "RATE4 ", "RATING SET 4                    "
RATING, 5, "RATE5 ", "RATING SET 5                    "
RATING, 6, "RATE6 ", "RATING SET 6                    "
RATING, 7, "RATE7 ", "RATING SET 7                    "
RATING, 8, "RATE8 ", "RATING SET 8                    "
RATING, 9, "RATE9 ", "RATING SET 9                    "
RATING,10, "RATE10", "RATING SET 10                   "
RATING,11, "RATE11", "RATING SET 11                   "
RATING,12, "RATE12", "RATING SET 12                   "
0 / END OF SYSTEM-WIDE DATA, BEGIN BUS DATA
@!   I,'NAME        ', BASKV, IDE,AREA,ZONE,OWNER, VM,        VA,    NVHI,   NVLO,   EVHI,   EVLO
  1001,'NODE_1001   ', 115.0000,1,   1,   9,   1,0.97944, -22.7348,1.10000,0.90000,1.10000,0.90000
  1002,'NODE_1002   ', 115.0000,1,   1,   9,   1,1.01274, -18.0885,1.10000,0.90000,1.10000,0.90000
  1003,'NODE_1003   ', 115.0000,1,   1,   9,   1,1.00926, -17.0867,1.10000,0.90000,1.10000,0.90000
  1004,'NODE_1004   ', 230.0000,2,   1,   9,   1,1.01307, -18.9340,1.10000,0.90000,1.10000,0.90000
  1005,'NODE_1005   ', 115.0000,1,   1,   9,   1,1.00558, -16.0772,1.10000,0.90000,1.10000,0.90000
  1006,'NODE_1006   ',  13.8000,2,   1,   9,   1,1.00000, -13.9056,1.10000,0.90000,1.10000,0.90000
  1007,'NODE_1007   ', 115.0000,1,   1,   9,   1,1.02000, -18.4672,1.10000,0.90000,1.10000,0.90000
  1008,'NODE_1008   ', 115.0000,1,   1,   9,   1,1.01928,  -8.6052,1.10000,0.90000,1.10000,0.90000
  1009,'NODE_1009   ',  13.8000,2,   1,   9,   1,1.00924,  -5.3096,1.10000,0.90000,1.10000,0.90000
  1010,'NODE_1010   ', 115.0000,1,   1,   9,   1,1.02000, -16.7924,1.10000,0.90000,1.10000,0.90000
  1011,'NODE_1011   ',  22.0000,2,   1,   9,   1,1.02021, -15.0098,1.10000,0.90000,1.10000,0.90000
  1012,'NODE_1012   ', 115.0000,1,   1,   9,   1,1.00599, -25.3428,1.10000,0.90000,1.10000,0.90000
  1013,'NODE_1013   ', 115.0000,1,   1,   9,   1,1.00568, -15.4366,1.10000,0.90000,1.10000,0.90000
  1014,'NODE_1014   ', 115.0000,1,   1,   9,   1,1.01235, -11.9132,1.10000,0.90000,1.10000,0.90000
  1015,'NODE_1015   ', 115.0000,1,   1,   9,   1,1.02182, -18.2145,1.10000,0.90000,1.10000,0.90000
  1016,'NODE_1016   ', 115.0000,1,   1,   9,   1,1.01741, -15.4854,1.10000,0.90000,1.10000,0.90000
  1017,'NODE_1017   ', 115.0000,1,   1,   9,   1,0.98167, -21.4262,1.10000,0.90000,1.10000,0.90000
  1018,'NODE_1018   ', 115.0000,1,   1,   9,   1,0.99115, -20.2161,1.10000,0.90000,1.10000,0.90000
  1019,'NODE_1019   ', 115.0000,1,   1,   9,   1,0.99949, -22.3204,1.10000,0.90000,1.10000,0.90000
  1020,'NODE_1020   ', 115.0000,1,   1,   9,   1,1.02000, -15.2301,1.10000,0.90000,1.10000,0.90000
  1021,'NODE_1021   ',  13.8000,2,   1,   9,   1,1.00000,  -8.6068,1.10000,0.90000,1.10000,0.90000
  1022,'NODE_1022   ', 115.0000,1,   1,   9,   1,1.01242, -16.2047,1.10000,0.90000,1.10000,0.90000
  1023,'NODE_1023   ',  13.8000,2,   1,   9,   1,1.01000,  -7.3004,1.10000,0.90000,1.10000,0.90000
  1024,'NODE_1024   ', 115.0000,1,   1,   9,   1,0.99450, -19.2002,1.10000,0.90000,1.10000,0.90000
  1025,'NODE_1025   ', 115.0000,1,   1,   9,   1,1.01629, -14.1704,1.10000,0.90000,1.10000,0.90000
  1026,'NODE_1026   ',  13.8000,2,   1,   9,   1,1.00000,  -4.6415,1.10000,0.90000,1.10000,0.90000
  1027,'NODE_1027   ', 115.0000,1,   1,   9,   1,1.00530, -25.8333,1.10000,0.90000,1.10000,0.90000
  1028,'NODE_1028   ', 115.0000,1,   1,   9,   1,1.01542, -17.7171,1.10000,0.90000,1.10000,0.90000
  1029,'NODE_1029   ', 115.0000,1,   1,   9,   1,1.00242, -24.8589,1.10000,0.90000,1.10000,0.90000
  1030,'NODE_1030   ', 115.0000,1,   1,   9,   1,1.01223, -13.4114,1.10000,0.90000,1.10000,0.90000
  1031,'NODE_1031   ', 115.0000,1,   1,   9,   1,1.01219, -17.6723,1.10000,0.90000,1.10000,0.90000
  1032,'NODE_1032   ', 115.0000,1,   1,   9,   1,1.00066, -12.2805,1.10000,0.90000,1.10000,0.90000
  1033,'NODE_1033   ', 230.0000,2,   1,   9,   1,1.01675, -16.8985,1.10000,0.90000,1.10000,0.90000
  1034,'NODE_1034   ', 115.0000,1,   1,   9,   1,1.00453, -14.3203,1.10000,0.90000,1.10000,0.90000
  1035,'NODE_1035   ',  13.8000,2,   1,   9,   1,1.00000, -11.0304,1.10000,0.90000,1.10000,0.90000
  1036,'NODE_1036   ', 115.0000,1,   1,   9,   1,0.99762, -12.5270,1.10000,0.90000,1.10000,0.90000
  1037,'NODE_1037   ', 115.0000,1,   1,   9,   1,0.97450, -22.5448,1.10000,0.90000,1.10000,0.90000
  1038,'NODE_1038   ', 115.0000,1,   1,   9,   1,1.01657,  -7.6466,1.10000,0.90000,1.10000,0.90000
  1039,'NODE_1039   ',  22.0000,2,   1,   9,   1,1.00000,  -2.2631,1.10000,0.90000,1.10000,0.90000
  1040,'NODE_1040   ', 115.0000,1,   1,   9,   1,0.99401, -20.4800,1.10000,0.90000,1.10000,0.90000
  1041,'NODE_1041   ', 115.0000,1,   1,   9,   1,1.00177, -15.1075,1.10000,0.90000,1.10000,0.90000
  1042,'NODE_1042   ',  13.8000,2,   1,   9,   1,1.00177, -15.1075,1.10000,0.90000,1.10000,0.90000
  1043,'NODE_1043   ',  13.8000,2,   1,   9,   1,1.00000, -11.8642,1.10000,0.90000,1.10000,0.90000
  1044,'NODE_1044   ', 115.0000,1,   1,   9,   1,1.00676, -25.9639,1.10000,0.90000,1.10000,0.90000
  1045,'NODE_1045   ', 115.0000,1,   1,   9,   1,0.97743, -24.4476,1.10000,0.90000,1.10000,0.90000
  1046,'NODE_1046   ', 115.0000,1,   1,   9,   1,1.01763, -22.4914,1.10000,0.90000,1.10000,0.90000
  1047,'NODE_1047   ', 115.0000,1,   1,   9,   1,1.00525, -13.3501,1.10000,0.90000,1.10000,0.90000
  1048,'NODE_1048   ',  18.0000,2,   1,   9,   1,1.00525, -13.3501,1.10000,0.90000,1.10000,0.90000
  1049,'NODE_1049   ',  18.0000,2,   1,   9,   1,1.00525, -13.3501,1.10000,0.90000,1.10000,0.90000
  1050,'NODE_1050   ',  18.0000,2,   1,   9,   1,1.00000,  -8.2848,1.10000,0.90000,1.10000,0.90000
  1051,'NODE_1051   ',  18.0000,2,   1,   9,   1,1.00000,  -6.8074,1.10000,0.90000,1.10000,0.90000
  1052,'NODE_1052   ',  18.0000,2,   1,   9,   1,1.00000,  -9.1344,1.10000,0.90000,1.10000,0.90000
  1053,'NODE_1053   ', 230.0000,2,   1,   9,   1,1.01741, -17.3362,1.10000,0.90000,1.10000,0.90000
  1054,'NODE_1054   ', 115.0000,1,   1,   9,   1,1.00368, -22.2923,1.10000,0.90000,1.10000,0.90000
  1055,'NODE_1055   ', 115.0000,1,   1,   9,   1,1.00141, -18.1296,1.10000,0.90000,1.10000,0.90000
  1056,'NODE_1056   ', 115.0000,1,   1,   9,   1,1.02000, -21.8196,1.10000,0.90000,1.10000,0.90000
  1057,'NODE_1057   ',  18.0000,2,   1,   9,   1,1.02000, -21.8196,1.10000,0.90000,1.10000,0.90000
  1058,'NODE_1058   ', 115.0000,1,   1,   9,   1,1.01937, -11.2209,1.10000,0.90000,1.10000,0.90000
  1059,'NODE_1059   ',  22.0000,2,   1,   9,   1,1.01937, -11.2209,1.10000,0.90000,1.10000,0.90000
  1060,'NODE_1060   ',  22.0000,2,   1,   9,   1,1.01937, -11.2209,1.10000,0.90000,1.10000,0.90000
  1061,'NODE_1061   ', 115.0000,1,   1,   9,   1,1.00656, -17.2194,1.10000,0.90000,1.10000,0.90000
  1062,'NODE_1062   ',  13.8000,2,   1,   9,   1,1.00656, -17.2194,1.10000,0.90000,1.10000,0.90000
  1063,'NODE_1063   ',  13.8000,2,   1,   9,   1,1.00656, -17.2194,1.10000,0.90000,1.10000,0.90000
  1064,'NODE_1064   ', 115.0000,1,   1,   9,   1,0.97203, -24.1533,1.10000,0.90000,1.10000,0.90000
  1065,'NODE_1065   ', 115.0000,1,   1,   9,   1,1.00426, -14.9326,1.10000,0.90000,1.10000,0.90000
  1066,'NODE_1066   ',  13.8000,2,   1,   9,   1,1.00000,  -7.3991,1.10000,0.90000,1.10000,0.90000
  1067,'NODE_1067   ', 115.0000,1,   1,   9,   1,0.99860, -15.6825,1.10000,0.90000,1.10000,0.90000
  1068,'NODE_1068   ', 115.0000,1,   1,   9,   1,0.98680, -16.4369,1.10000,0.90000,1.10000,0.90000
  1069,'NODE_1069   ', 115.0000,1,   1,   9,   1,1.02256,  -8.7326,1.10000,0.90000,1.10000,0.90000
  1070,'NODE_1070   ',  13.8000,2,   1,   9,   1,1.04000,  -4.2288,1.10000,0.90000,1.10000,0.90000
  1071,'NODE_1071   ', 115.0000,1,   1,   9,   1,0.98703, -21.4740,1.10000,0.90000,1.10000,0.90000
  1072,'NODE_1072   ',  18.0000,2,   1,   9,   1,1.01000, -12.1100,1.10000,0.90000,1.10000,0.90000
  1073,'NODE_1073   ',  18.0000,2,   1,   9,   1,1.01000,  -5.6820,1.10000,0.90000,1.10000,0.90000
  1074,'NODE_1074   ',  18.0000,2,   1,   9,   1,1.01000,  -7.7380,1.10000,0.90000,1.10000,0.90000
  1075,'NODE_1075   ',  18.0000,2,   1,   9,   1,1.01000, -10.5055,1.10000,0.90000,1.10000,0.90000
  1076,'NODE_1076   ',  18.0000,2,   1,   9,   1,0.98703, -21.4740,1.10000,0.90000,1.10000,0.90000
  1077,'NODE_1077   ',  18.0000,2,   1,   9,   1,0.98703, -21.4740,1.10000,0.90000,1.10000,0.90000
  1078,'NODE_1078   ',  18.0000,2,   1,   9,   1,1.01000, -11.0247,1.10000,0.90000,1.10000,0.90000
  1079,'NODE_1079   ', 500.0000,2,   1,   9,   1,1.01621, -38.5829,1.10000,0.90000,1.10000,0.90000
  1080,'NODE_1080   ',  18.0000,2,   1,   9,   1,1.01000, -10.4487,1.10000,0.90000,1.10000,0.90000
  1081,'NODE_1081   ', 230.0000,2,   1,   9,   1,1.02000, -18.6913,1.10000,0.90000,1.10000,0.90000
  1082,'NODE_1082   ', 115.0000,2,   1,   9,   1,1.01941,  -5.9104,1.10000,0.90000,1.10000,0.90000
  1083,'NODE_1083   ', 115.0000,1,   1,   9,   1,1.01886,  -9.8867,1.10000,0.90000,1.10000,0.90000
  1084,'NODE_1084   ', 115.0000,2,   1,   9,   1,1.02252, -16.4672,1.10000,0.90000,1.10000,0.90000
  1085,'NODE_1085   ', 115.0000,1,   1,   9,   1,1.00899, -15.3429,1.10000,0.90000,1.10000,0.90000
  1086,'NODE_1086   ', 115.0000,1,   1,   9,   1,1.01537, -17.5851,1.10000,0.90000,1.10000,0.90000
  1087,'NODE_1087   ', 115.0000,1,   1,   9,   1,1.02000, -16.1254,1.10000,0.90000,1.10000,0.90000
  1088,'NODE_1088   ', 115.0000,2,   1,   9,   1,1.00000, -11.8785,1.10000,0.90000,1.10000,0.90000
  1089,'NODE_1089   ', 115.0000,1,   1,   9,   1,0.98063, -21.3068,1.10000,0.90000,1.10000,0.90000
  1090,'NODE_1090   ', 115.0000,2,   1,   9,   1,1.02000, -16.1451,1.10000,0.90000,1.10000,0.90000
  1091,'NODE_1091   ', 161.0000,1,   1,   9,   1,1.02483, -31.0177,1.10000,0.90000,1.10000,0.90000
  2001,'NODE_2001   ', 161.0000,1,   2,  11,   1,1.00175, -59.9821,1.10000,0.90000,1.10000,0.90000
  2002,'NODE_2002   ', 500.0000,1,   2,  11,   1,1.01106, -61.5666,1.10000,0.90000,1.10000,0.90000
  2003,'NODE_2003   ', 161.0000,1,   2,  11,   1,1.00934, -63.8285,1.10000,0.90000,1.10000,0.90000
  2004,'NODE_2004   ',  13.8000,2,   2,  11,   1,1.01106, -61.5666,1.10000,0.90000,1.10000,0.90000
  2005,'NODE_2005   ',  13.8000,2,   2,  11,   1,1.01106, -61.5666,1.10000,0.90000,1.10000,0.90000
  2006,'NODE_2006   ',  13.8000,2,   2,  11,   1,1.01106, -61.5666,1.10000,0.90000,1.10000,0.90000
  2007,'NODE_2007   ', 161.0000,1,   2,  11,   1,1.00251, -59.7519,1.10000,0.90000,1.10000,0.90000
  2008,'NODE_2008   ', 161.0000,1,   2,  10,   1,1.01613, -32.8330,1.10000,0.90000,1.10000,0.90000
  2009,'NODE_2009   ', 161.0000,1,   2,  11,   1,1.02000, -45.2154,1.10000,0.90000,1.10000,0.90000
  2010,'NODE_2010   ', 161.0000,1,   2,  10,   1,1.02000, -36.4051,1.10000,0.90000,1.10000,0.90000
  2011,'NODE_2011   ', 500.0000,1,   2,  10,   1,1.03887, -32.1010,1.10000,0.90000,1.10000,0.90000
  2012,'NODE_2012   ', 161.0000,1,   2,  10,   1,1.02710, -29.8692,1.10000,0.90000,1.10000,0.90000
  2013,'NODE_2013   ',  18.0000,2,   2,  10,   1,1.03051, -29.7610,1.10000,0.90000,1.10000,0.90000
  2014,'NODE_2014   ', 161.0000,1,   2,  10,   1,1.01449, -33.4089,1.10000,0.90000,1.10000,0.90000
  2015,'NODE_2015   ', 161.0000,1,   2,  11,   1,1.00608, -63.2928,1.10000,0.90000,1.10000,0.90000
  2016,'NODE_2016   ', 161.0000,1,   2,  11,   1,1.00602, -69.9548,1.10000,0.90000,1.10000,0.90000
  2017,'NODE_2017   ', 500.0000,1,   2,  10,   1,1.02839, -32.2468,1.10000,0.90000,1.10000,0.90000
  2018,'NODE_2018   ', 161.0000,1,   2,  10,   1,1.02649, -31.4567,1.10000,0.90000,1.10000,0.90000
  2019,'NODE_2019   ',  20.0000,2,   2,  10,   1,1.02839, -32.2468,1.10000,0.90000,1.10000,0.90000
  2020,'NODE_2020   ', 161.0000,1,   2,  11,   1,0.99517, -44.8854,1.10000,0.90000,1.10000,0.90000
  2021,'NODE_2021   ', 500.0000,1,   2,  11,   1,1.01387, -56.7024,1.10000,0.90000,1.10000,0.90000
  2022,'NODE_2022   ', 161.0000,1,   2,  11,   1,1.01001, -58.6376,1.10000,0.90000,1.10000,0.90000
  2023,'NODE_2023   ',  13.8000,2,   2,  11,   1,1.02000, -55.1395,1.10000,0.90000,1.10000,0.90000
  2024,'NODE_2024   ',  13.8000,2,   2,  11,   1,1.02000, -54.4741,1.10000,0.90000,1.10000,0.90000
  2025,'NODE_2025   ', 161.0000,1,   2,  11,   1,0.99407, -44.1241,1.10000,0.90000,1.10000,0.90000
  2026,'NODE_2026   ', 161.0000,1,   2,  10,   1,1.02648, -31.0815,1.10000,0.90000,1.10000,0.90000
  2027,'NODE_2027   ', 161.0000,1,   2,  11,   1,1.00220, -60.4130,1.10000,0.90000,1.10000,0.90000
  2028,'NODE_2028   ', 161.0000,1,   2,  11,   1,0.99459, -47.2498,1.10000,0.90000,1.10000,0.90000
  2029,'NODE_2029   ', 161.0000,1,   2,  10,   1,1.02005, -32.7814,1.10000,0.90000,1.10000,0.90000
  2030,'NODE_2030   ', 161.0000,1,   2,  11,   1,0.98837, -64.0398,1.10000,0.90000,1.10000,0.90000
  2031,'NODE_2031   ', 161.0000,1,   2,  10,   1,1.02046, -29.6387,1.10000,0.90000,1.10000,0.90000
  2032,'NODE_2032   ', 161.0000,1,   2,  11,   1,1.00454, -59.1469,1.10000,0.90000,1.10000,0.90000
  2033,'NODE_2033   ', 161.0000,1,   2,  11,   1,0.99087, -65.5522,1.10000,0.90000,1.10000,0.90000
  2034,'NODE_2034   ', 161.0000,1,   2,  11,   1,1.00462, -69.2831,1.10000,0.90000,1.10000,0.90000
  2035,'NODE_2035   ', 161.0000,1,   2,  10,   1,1.01521, -30.5607,1.10000,0.90000,1.10000,0.90000
  2036,'NODE_2036   ', 161.0000,1,   2,  11,   1,0.99894, -44.4832,1.10000,0.90000,1.10000,0.90000
  2037,'NODE_2037   ', 161.0000,1,   2,  11,   1,1.01668, -63.6261,1.10000,0.90000,1.10000,0.90000
  2038,'NODE_2038   ', 161.0000,1,   2,  11,   1,1.00633, -64.3013,1.10000,0.90000,1.10000,0.90000
  2039,'NODE_2039   ', 161.0000,1,   2,  11,   1,0.99125, -60.6712,1.10000,0.90000,1.10000,0.90000
  2040,'NODE_2040   ', 161.0000,1,   2,  11,   1,1.00744, -59.3080,1.10000,0.90000,1.10000,0.90000
  2041,'NODE_2041   ', 161.0000,1,   2,  10,   1,1.02802, -27.6861,1.10000,0.90000,1.10000,0.90000
  2042,'NODE_2042   ',  18.0000,2,   2,  10,   1,1.01943, -25.1108,1.10000,0.90000,1.10000,0.90000
  2043,'NODE_2043   ', 161.0000,1,   2,  11,   1,1.00505, -69.5896,1.10000,0.90000,1.10000,0.90000
  2044,'NODE_2044   ', 161.0000,1,   2,  11,   1,1.01306, -65.3833,1.10000,0.90000,1.10000,0.90000
  2045,'NODE_2045   ', 161.0000,1,   2,  11,   1,0.99445, -45.4240,1.10000,0.90000,1.10000,0.90000
  2046,'NODE_2046   ', 161.0000,1,   2,  11,   1,1.00456, -68.8968,1.10000,0.90000,1.10000,0.90000
  2047,'NODE_2047   ', 161.0000,1,   2,  11,   1,1.00790, -64.7299,1.10000,0.90000,1.10000,0.90000
  2048,'NODE_2048   ', 161.0000,1,   2,  10,   1,1.02370, -31.7110,1.10000,0.90000,1.10000,0.90000
  2049,'NODE_2049   ', 161.0000,1,   2,  10,   1,1.01776, -40.9465,1.10000,0.90000,1.10000,0.90000
  2050,'NODE_2050   ', 161.0000,1,   2,  11,   1,0.99419, -63.2354,1.10000,0.90000,1.10000,0.90000
  2051,'NODE_2051   ', 161.0000,1,   2,  11,   1,0.98955, -54.1403,1.10000,0.90000,1.10000,0.90000
  2052,'NODE_2052   ', 161.0000,1,   2,  10,   1,1.01744, -31.9635,1.10000,0.90000,1.10000,0.90000
  2053,'NODE_2053   ', 161.0000,1,   2,  11,   1,0.99106, -59.3604,1.10000,0.90000,1.10000,0.90000
  2054,'NODE_2054   ', 500.0000,1,   2,  11,   1,0.99778, -43.1313,1.10000,0.90000,1.10000,0.90000
  2055,'NODE_2055   ', 161.0000,1,   2,  11,   1,0.99733, -43.9607,1.10000,0.90000,1.10000,0.90000
  2056,'NODE_2056   ',  18.0000,2,   2,  11,   1,0.99778, -43.1313,1.10000,0.90000,1.10000,0.90000
  2057,'NODE_2057   ',  18.0000,2,   2,  11,   1,0.99000, -38.7253,1.10000,0.90000,1.10000,0.90000
  2058,'NODE_2058   ', 161.0000,1,   2,  10,   1,1.02836, -27.2580,1.10000,0.90000,1.10000,0.90000
  2059,'NODE_2059   ',  13.8000,2,   2,  10,   1,1.01836, -23.9117,1.10000,0.90000,1.10000,0.90000
  2060,'NODE_2060   ', 161.0000,1,   2,  11,   1,0.99740, -61.9510,1.10000,0.90000,1.10000,0.90000
  2061,'NODE_2061   ', 161.0000,1,   2,  10,   1,1.02118, -37.4278,1.10000,0.90000,1.10000,0.90000
  2062,'NODE_2062   ',  18.0000,2,   2,  10,   1,1.02000, -35.1310,1.10000,0.90000,1.10000,0.90000
  2063,'NODE_2063   ', 161.0000,1,   2,  11,   1,1.00606, -68.2584,1.10000,0.90000,1.10000,0.90000
  2064,'NODE_2064   ', 161.0000,1,   2,  11,   1,1.00311, -60.2774,1.10000,0.90000,1.10000,0.90000
  2065,'NODE_2065   ', 161.0000,1,   2,  11,   1,1.02000, -65.6007,1.10000,0.90000,1.10000,0.90000
  2066,'NODE_2066   ', 161.0000,1,   2,  10,   1,1.01444, -27.6288,1.10000,0.90000,1.10000,0.90000
  2067,'NODE_2067   ', 161.0000,1,   2,  11,   1,0.99236, -44.0480,1.10000,0.90000,1.10000,0.90000
  2068,'NODE_2068   ', 161.0000,1,   2,  11,   1,0.99900, -42.0163,1.10000,0.90000,1.10000,0.90000
  2069,'NODE_2069   ', 161.0000,1,   2,  11,   1,1.02000, -69.1168,1.10000,0.90000,1.10000,0.90000
  2070,'NODE_2070   ', 161.0000,1,   2,  11,   1,1.00108, -41.5981,1.10000,0.90000,1.10000,0.90000
  2071,'NODE_2071   ',  18.0000,2,   2,  11,   1,1.00000, -37.9197,1.10000,0.90000,1.10000,0.90000
  2072,'NODE_2072   ', 161.0000,1,   2,  11,   1,1.01488, -67.2406,1.10000,0.90000,1.10000,0.90000
  2073,'NODE_2073   ', 161.0000,1,   2,  10,   1,1.01551, -25.1088,1.10000,0.90000,1.10000,0.90000
  2074,'NODE_2074   ', 115.0000,1,   2,  10,   1,1.00585, -23.2368,1.10000,0.90000,1.10000,0.90000
  2075,'NODE_2075   ', 115.0000,1,   2,  10,   1,1.00585, -23.2368,1.10000,0.90000,1.10000,0.90000
  2076,'NODE_2076   ',  24.0000,2,   2,  10,   1,1.02078, -24.2021,1.10000,0.90000,1.10000,0.90000
  2077,'NODE_2077   ', 161.0000,1,   2,  11,   1,1.01790, -61.1977,1.10000,0.90000,1.10000,0.90000
  2078,'NODE_2078   ',  13.8000,2,   2,  11,   1,1.02000, -57.8750,1.10000,0.90000,1.10000,0.90000
  2079,'NODE_2079   ', 161.0000,1,   2,  10,   1,1.02230, -34.6267,1.10000,0.90000,1.10000,0.90000
  2080,'NODE_2080   ', 161.0000,1,   2,  11,   1,0.99462, -57.4992,1.10000,0.90000,1.10000,0.90000
  2081,'NODE_2081   ', 161.0000,1,   2,  11,   1,1.00094, -65.1077,1.10000,0.90000,1.10000,0.90000
  2082,'NODE_2082   ', 161.0000,1,   2,  11,   1,1.00287, -44.8266,1.10000,0.90000,1.10000,0.90000
  2083,'NODE_2083   ',  20.0000,2,   2,  11,   1,1.01759, -43.2471,1.10000,0.90000,1.10000,0.90000
  2084,'NODE_2084   ',  20.0000,2,   2,  11,   1,1.00287, -44.8266,1.10000,0.90000,1.10000,0.90000
  2085,'NODE_2085   ',  20.0000,2,   2,  11,   1,1.00287, -44.8266,1.10000,0.90000,1.10000,0.90000
  2086,'NODE_2086   ', 161.0000,1,   2,  11,   1,0.99245, -59.4745,1.10000,0.90000,1.10000,0.90000
  2087,'NODE_2087   ', 161.0000,1,   2,  10,   1,1.01738, -27.4726,1.10000,0.90000,1.10000,0.90000
  2088,'NODE_2088   ', 161.0000,1,   2,  11,   1,1.00007, -41.7164,1.10000,0.90000,1.10000,0.90000
  2089,'NODE_2089   ',  24.0000,2,   2,  11,   1,1.00000, -38.1135,1.10000,0.90000,1.10000,0.90000
  2090,'NODE_2090   ', 161.0000,1,   2,  11,   1,1.00252, -61.0333,1.10000,0.90000,1.10000,0.90000
  2091,'NODE_2091   ', 161.0000,1,   2,  10,   1,1.01628, -33.9785,1.10000,0.90000,1.10000,0.90000
  2092,'NODE_2092   ', 161.0000,1,   2,  11,   1,1.00542, -66.5685,1.10000,0.90000,1.10000,0.90000
  2093,'NODE_2093   ', 161.0000,1,   2,  10,   1,1.02727, -30.6214,1.10000,0.90000,1.10000,0.90000
  2094,'NODE_2094   ',  13.8000,2,   2,  10,   1,1.02727, -30.6214,1.10000,0.90000,1.10000,0.90000
  2095,'NODE_2095   ',  13.8000,2,   2,  10,   1,1.02727, -30.6214,1.10000,0.90000,1.10000,0.90000
  2096,'NODE_2096   ', 500.0000,1,   2,  10,   1,1.02000, -27.8432,1.10000,0.90000,1.10000,0.90000
  2097,'NODE_2097   ', 230.0000,1,   2,  10,   1,1.01927, -27.2823,1.10000,0.90000,1.10000,0.90000
  2098,'NODE_2098   ', 161.0000,1,   2,  10,   1,1.02565, -30.4265,1.10000,0.90000,1.10000,0.90000
  2099,'NODE_2099   ',  18.0000,2,   2,  10,   1,1.02000, -27.6995,1.10000,0.90000,1.10000,0.90000
  2100,'NODE_2100   ',  18.0000,2,   2,  10,   1,1.02000, -25.2187,1.10000,0.90000,1.10000,0.90000
  2101,'NODE_2101   ', 500.0000,1,   2,  11,   1,1.01054, -62.6733,1.10000,0.90000,1.10000,0.90000
  2102,'NODE_2102   ', 161.0000,1,   2,  11,   1,1.01059, -64.1209,1.10000,0.90000,1.10000,0.90000
  2103,'NODE_2103   ',  20.0000,2,   2,  11,   1,1.01054, -62.6733,1.10000,0.90000,1.10000,0.90000
  2104,'NODE_2104   ',  20.0000,2,   2,  11,   1,1.01054, -62.6733,1.10000,0.90000,1.10000,0.90000
  2105,'NODE_2105   ',  20.0000,2,   2,  11,   1,1.01054, -62.6733,1.10000,0.90000,1.10000,0.90000
  2106,'NODE_2106   ', 161.0000,1,   2,  11,   1,0.98913, -66.1980,1.10000,0.90000,1.10000,0.90000
  2107,'NODE_2107   ', 161.0000,1,   2,  11,   1,1.00515, -64.9929,1.10000,0.90000,1.10000,0.90000
  2108,'NODE_2108   ', 161.0000,1,   2,  10,   1,0.99910, -43.6911,1.10000,0.90000,1.10000,0.90000
  2109,'NODE_2109   ', 161.0000,1,   2,  11,   1,1.00661, -46.3573,1.10000,0.90000,1.10000,0.90000
...
0 / END OF BUS DATA, BEGIN LOAD DATA
@!   I,'ID',STAT,AREA,ZONE,      PL,        QL,        IP,        IQ,        YP,        YQ, OWNER,SCALE,INTRPT,  DGENP,     DGENQ, DGENF
  1001,'1 ',   1,   1,   9,    20.781,     5.888,     0.000,     0.000,     0.000,     0.000,   1,    1,  0,     0.000,     0.000,   0
  1002,'1 ',   1,   1,   9,    15.414,     4.367,     0.000,     0.000,     0.000,     0.000,   1,    1,  0,     0.000,     0.000,   0
  1007,'1 ',   1,   1,   9,     7.008,     1.986,     0.000,     0.000,     0.000,     0.000,   1,    1,  0,     0.000,     0.000,   0
  1012,'1 ',   1,   1,   9,     2.985,     0.846,     0.000,     0.000,     0.000,     0.000,   1,    1,  0,     0.000,     0.000,   0
  1013,'1 ',   1,   1,   9,     0.510,     0.144,     0.000,     0.000,     0.000,     0.000,   1,    1,  0,     0.000,     0.000,   0
  1013,'2 ',   1,   1,   9,     1.518,     0.430,     0.000,     0.000,     0.000,     0.000,   1,    1,  0,     0.000,     0.000,   0
  1013,'3 ',   1,   1,   9,    27.198,     7.706,     0.000,     0.000,     0.000,     0.000,   1,    1,  0,     0.000,     0.000,   0
  1014,'1 ',   1,   1,   9,     2.220,     0.629,     0.000,     0.000,     0.000,     0.000,   1,    1,  0,     0.000,     0.000,   0
  1015,'1 ',   1,   1,   9,     7.509,     2.128,     0.000,     0.000,     0.000,     0.000,   1,    1,  0,     0.000,     0.000,   0
  1016,'1 ',   1,   1,   9,     2.889,     0.819,     0.000,     0.000,     0.000,     0.000,   1,    1,  0,     0.000,     0.000,   0
  1017,'1 ',   1,   1,   9,    18.345,     5.198,     0.000,     0.000,     0.000,     0.000,   1,    1,  0,     0.000,     0.000,   0
  1018,'1 ',   1,   1,   9,     0.069,     0.020,     0.000,     0.000,     0.000,     0.000,   1,    1,  0,     0.000,     0.000,   0
  1019,'1 ',   1,   1,   9,    61.776,    17.503,     0.000,     0.000,     0.000,     0.000,   1,    1,  0,     0.000,     0.000,   0
  1024,'1 ',   1,   1,   9,    63.039,    17.861,     0.000,     0.000,     0.000,     0.000,   1,    1,  0,     0.000,     0.000,   0
  1027,'1 ',   1,   1,   9,     0.603,     0.171,     0.000,     0.000,     0.000,     0.000,   1,    1,  0,     0.000,     0.000,   0
  1027,'2 ',   1,   1,   9,   100.608,    28.506,     0.000,     0.000,     0.000,     0.000,   1,    1,  0,     0.000,     0.000,   0
  1028,'1 ',   1,   1,   9,     1.425,     0.404,     0.000,     0.000,     0.000,     0.000,   1,    1,  0,     0.000,     0.000,   0
  1028,'2 ',   1,   1,   9,     0.753,     0.213,     0.000,     0.000,     0.000,     0.000,   1,    1,  0,     0.000,     0.000,   0
  1028,'3 ',   1,   1,   9,     4.899,     1.388,     0.000,     0.000,     0.000,     0.000,   1,    1,  0,     0.000,     0.000,   0
  1028,'4 ',   1,   1,   9,     2.937,     0.832,     0.000,     0.000,     0.000,     0.000,   1,    1,  0,     0.000,     0.000,   0
  1029,'1 ',   1,   1,   9,    83.184,    23.569,     0.000,     0.000,     0.000,     0.000,   1,    1,  0,     0.000,     0.000,   0
  1030,'1 ',   1,   1,   9,    23.046,     6.530,     0.000,     0.000,     0.000,     0.000,   1,    1,  0,     0.000,     0.000,   0
  1030,'2 ',   1,   1,   9,     1.581,     0.448,     0.000,     0.000,     0.000,     0.000,   1,    1,  0,     0.000,     0.000,   0
  1031,'1 ',   1,   1,   9,     9.246,     2.620,     0.000,     0.000,     0.000,     0.000,   1,    1,  0,     0.000,     0.000,   0
  1036,'1 ',   1,   1,   9,     1.017,     0.288,     0.000,     0.000,     0.000,     0.000,   1,    1,  0,     0.000,     0.000,   0
  1036,'2 ',   1,   1,   9,    12.579,     3.564,     0.000,     0.000,     0.000,     0.000,   1,    1,  0,     0.000,     0.000,   0
  1037,'1 ',   1,   1,   9,   102.237,    28.967,     0.000,     0.000,     0.000,     0.000,   1,    1,  0,     0.000,     0.000,   0
  1040,'1 ',   1,   1,   9,    44.358,    12.568,     0.000,     0.000,     0.000,     0.000,   1,    1,  0,     0.000,     0.000,   0
  1044,'1 ',   1,   1,   9,     4.512,     1.278,     0.000,     0.000,     0.000,     0.000,   1,    1,  0,     0.000,     0.000,   0
  1044,'2 ',   1,   1,   9,    10.170,     2.881,     0.000,     0.000,     0.000,     0.000,   1,    1,  0,     0.000,     0.000,   0
  1045,'1 ',   1,   1,   9,    98.562,    27.926,     0.000,     0.000,     0.000,     0.000,   1,    1,  0,     0.000,     0.000,   0
  1046,'1 ',   1,   1,   9,     0.006,     0.002,     0.000,     0.000,     0.000,     0.000,   1,    1,  0,     0.000,     0.000,   0
  1046,'2 ',   1,   1,   9,    11.079,     3.139,     0.000,     0.000,     0.000,     0.000,   1,    1,  0,     0.000,     0.000,   0
  1054,'1 ',   1,   1,   9,     1.776,     0.503,     0.000,     0.000,     0.000,     0.000,   1,    1,  0,     0.000,     0.000,   0
  1054,'2 ',   1,   1,   9,     0.519,     0.147,     0.000,     0.000,     0.000,     0.000,   1,    1,  0,     0.000,     0.000,   0
  1054,'3 ',   1,   1,   9,    12.693,     3.596,     0.000,     0.000,     0.000,     0.000,   1,    1,  0,     0.000,     0.000,   0
  1055,'1 ',   1,   1,   9,     3.978,     1.127,     0.000,     0.000,     0.000,     0.000,   1,    1,  0,     0.000,     0.000,   0
  1058,'1 ',   1,   1,   9,     4.086,     1.158,     0.000,     0.000,     0.000,     0.000,   1,    1,  0,     0.000,     0.000,   0
  1058,'2 ',   1,   1,   9,     9.369,     2.655,     0.000,     0.000,     0.000,     0.000,   1,    1,  0,     0.000,     0.000,   0
  1064,'1 ',   1,   1,   9,     6.591,     1.867,     0.000,     0.000,     0.000,     0.000,   1,    1,  0,     0.000,     0.000,   0
  1064,'2 ',   1,   1,   9,   117.168,    33.198,     0.000,     0.000,     0.000,     0.000,   1,    1,  0,     0.000,     0.000,   0
  1067,'1 ',   1,   1,   9,   101.550,    28.773,     0.000,     0.000,     0.000,     0.000,   1,    1,  0,     0.000,     0.000,   0
  1068,'1 ',   1,   1,   9,     0.690,     0.195,     0.000,     0.000,     0.000,     0.000,   1,    1,  0,     0.000,     0.000,   0
  1068,'2 ',   1,   1,   9,    58.713,    16.635,     0.000,     0.000,     0.000,     0.000,   1,    1,  0,     0.000,     0.000,   0
  1071,'1 ',   1,   1,   9,    91.464,    25.915,     0.000,     0.000,     0.000,     0.000,   1,    1,  0,     0.000,     0.000,   0
  1083,'1 ',   1,   1,   9,    39.945,    11.318,     0.000,     0.000,     0.000,     0.000,   1,    1,  0,     0.000,     0.000,   0
  1085,'1 ',   1,   1,   9,     2.922,     0.828,     0.000,     0.000,     0.000,     0.000,   1,    1,  0,     0.000,     0.000,   0
  1085,'2 ',   1,   1,   9,    18.375,     5.206,     0.000,     0.000,     0.000,     0.000,   1,    1,  0,     0.000,     0.000,   0
  1086,'1 ',   1,   1,   9,    39.672,    11.240,     0.000,     0.000,     0.000,     0.000,   1,    1,  0,     0.000,     0.000,   0
  1087,'1 ',   1,   1,   9,     0.909,     0.258,     0.000,     0.000,     0.000,     0.000,   1,    1,  0,     0.000,     0.000,   0
  1089,'1 ',   1,   1,   9,     0.831,     0.235,     0.000,     0.000,     0.000,     0.000,   1,    1,  0,     0.000,     0.000,   0
  1089,'2 ',   1,   1,   9,    39.774,    11.269,     0.000,     0.000,     0.000,     0.000,   1,    1,  0,     0.000,     0.000,   0
  1091,'1 ',   1,   1,   9,     4.713,     1.335,     0.000,     0.000,     0.000,     0.000,   1,    1,  0,     0.000,     0.000,   0
  1091,'2 ',   1,   1,   9,     6.909,     1.958,     0.000,     0.000,     0.000,     0.000,   1,    1,  0,     0.000,     0.000,   0
  2001,'1 ',   1,   2,  11,    14.307,     4.054,     0.000,     0.000,     0.000,     0.000,   1,    1,  0,     0.000,     0.000,   0
  2001,'2 ',   1,   2,  11,    34.050,     9.647,     0.000,     0.000,     0.000,     0.000,   1,    1,  0,     0.000,     0.000,   0
  2007,'1 ',   1,   2,  11,     9.540,     2.703,     0.000,     0.000,     0.000,     0.000,   1,    1,  0,     0.000,     0.000,   0
  2008,'1 ',   1,   2,  10,     8.061,     2.284,     0.000,     0.000,     0.000,     0.000,   1,    1,  0,     0.000,     0.000,   0
  2009,'1 ',   1,   2,  11,    39.135,    11.088,     0.000,     0.000,     0.000,     0.000,   1,    1,  0,     0.000,     0.000,   0
  2010,'1 ',   1,   2,  10,     5.106,     1.447,     0.000,     0.000,     0.000,     0.000,   1,    1,  0,     0.000,     0.000,   0
  2010,'2 ',   1,   2,  10,     9.606,     2.722,     0.000,     0.000,     0.000,     0.000,   1,    1,  0,     0.000,     0.000,   0
  2010,'3 ',   1,   2,  10,     2.928,     0.830,     0.000,     0.000,     0.000,     0.000,   1,    1,  0,     0.000,     0.000,   0
  2010,'4 ',   1,   2,  10,     0.192,     0.054,     0.000,     0.000,     0.000,     0.000,   1,    1,  0,     0.000,     0.000,   0
  2010,'5 ',   1,   2,  10,    38.973,    11.042,     0.000,     0.000,     0.000,     0.000,   1,    1,  0,     0.000,     0.000,   0
  2014,'1 ',   1,   2,  10,     3.624,     1.027,     0.000,     0.000,     0.000,     0.000,   1,    1,  0,     0.000,     0.000,   0
  2014,'2 ',   1,   2,  10,    21.804,     6.178,     0.000,     0.000,     0.000,     0.000,   1,    1,  0,     0.000,     0.000,   0
  2015,'1 ',   1,   2,  11,     4.686,     1.328,     0.000,     0.000,     0.000,     0.000,   1,    1,  0,     0.000,     0.000,   0
  2016,'1 ',   1,   2,  11,    69.267,    19.626,     0.000,     0.000,     0.000,     0.000,   1,    1,  0,     0.000,     0.000,   0
  2020,'1 ',   1,   2,  11,    47.973,    13.592,     0.000,     0.000,     0.000,     0.000,   1,    1,  0,     0.000,     0.000,   0
  2022,'1 ',   1,   2,  11,    11.565,     3.277,     0.000,     0.000,     0.000,     0.000,   1,    1,  0,     0.000,     0.000,   0
  2025,'1 ',   1,   2,  11,    39.618,    11.225,     0.000,     0.000,     0.000,     0.000,   1,    1,  0,     0.000,     0.000,   0
  2026,'1 ',   1,   2,  10,     2.511,     0.711,     0.000,     0.000,     0.000,     0.000,   1,    1,  0,     0.000,     0.000,   0
  2026,'2 ',   1,   2,  10,     0.948,     0.269,     0.000,     0.000,     0.000,     0.000,   1,    1,  0,     0.000,     0.000,   0
  2026,'3 ',   1,   2,  10,     7.173,     2.032,     0.000,     0.000,     0.000,     0.000,   1,    1,  0,     0.000,     0.000,   0
  2026,'4 ',   1,   2,  10,     7.938,     2.249,     0.000,     0.000,     0.000,     0.000,   1,    1,  0,     0.000,     0.000,   0
  2027,'1 ',   1,   2,  11,     3.555,     1.007,     0.000,     0.000,     0.000,     0.000,   1,    1,  0,     0.000,     0.000,   0
  2028,'1 ',   1,   2,  11,    14.238,     4.034,     0.000,     0.000,     0.000,     0.000,   1,    1,  0,     0.000,     0.000,   0
  2029,'1 ',   1,   2,  10,     3.201,     0.907,     0.000,     0.000,     0.000,     0.000,   1,    1,  0,     0.000,     0.000,   0
  2030,'1 ',   1,   2,  11,     3.912,     1.108,     0.000,     0.000,     0.000,     0.000,   1,    1,  0,     0.000,     0.000,   0
  2030,'2 ',   1,   2,  11,    43.233,    12.249,     0.000,     0.000,     0.000,     0.000,   1,    1,  0,     0.000,     0.000,   0
  2031,'1 ',   1,   2,  10,     0.786,     0.223,     0.000,     0.000,     0.000,     0.000,   1,    1,  0,     0.000,     0.000,   0
  2031,'2 ',   1,   2,  10,     1.272,     0.360,     0.000,     0.000,     0.000,     0.000,   1,    1,  0,     0.000,     0.000,   0
  2031,'3 ',   1,   2,  10,     3.708,     1.051,     0.000,     0.000,     0.000,     0.000,   1,    1,  0,     0.000,     0.000,   0
  2032,'1 ',   1,   2,  11,     3.354,     0.950,     0.000,     0.000,     0.000,     0.000,   1,    1,  0,     0.000,     0.000,   0
  2033,'1 ',   1,   2,  11,     1.302,     0.369,     0.000,     0.000,     0.000,     0.000,   1,    1,  0,     0.000,     0.000,   0
  2033,'2 ',   1,   2,  11,    12.270,     3.477,     0.000,     0.000,     0.000,     0.000,   1,    1,  0,     0.000,     0.000,   0
  2034,'1 ',   1,   2,  11,     5.340,     1.513,     0.000,     0.000,     0.000,     0.000,   1,    1,  0,     0.000,     0.000,   0
  2035,'1 ',   1,   2,  10,     4.149,     1.176,     0.000,     0.000,     0.000,     0.000,   1,    1,  0,     0.000,     0.000,   0
  2035,'2 ',   1,   2,  10,     0.534,     0.151,     0.000,     0.000,     0.000,     0.000,   1,    1,  0,     0.000,     0.000,   0
  2036,'1 ',   1,   2,  11,    41.586,    11.783,     0.000,     0.000,     0.000,     0.000,   1,    1,  0,     0.000,     0.000,   0
  2037,'1 ',   1,   2,  11,     0.690,     0.195,     0.000,     0.000,     0.000,     0.000,   1,    1,  0,     0.000,     0.000,   0
  2037,'2 ',   1,   2,  11,     2.811,     0.796,     0.000,     0.000,     0.000,     0.000,   1,    1,  0,     0.000,     0.000,   0
  2038,'1 ',   1,   2,  11,     2.604,     0.738,     0.000,     0.000,     0.000,     0.000,   1,    1,  0,     0.000,     0.000,   0
  2039,'1 ',   1,   2,  11,     5.559,     1.575,     0.000,     0.000,     0.000,     0.000,   1,    1,  0,     0.000,     0.000,   0
  2040,'1 ',   1,   2,  11,    15.903,     4.506,     0.000,     0.000,     0.000,     0.000,   1,    1,  0,     0.000,     0.000,   0
  2043,'1 ',   1,   2,  11,     4.236,     1.200,     0.000,     0.000,     0.000,     0.000,   1,    1,  0,     0.000,     0.000,   0
  2044,'1 ',   1,   2,  11,    27.405,     7.765,     0.000,     0.000,     0.000,     0.000,   1,    1,  0,     0.000,     0.000,   0
  2045,'1 ',   1,   2,  11,    22.605,     6.405,     0.000,     0.000,     0.000,     0.000,   1,    1,  0,     0.000,     0.000,   0
  2046,'1 ',   1,   2,  11,    22.134,     6.271,     0.000,     0.000,     0.000,     0.000,   1,    1,  0,     0.000,     0.000,   0
  2047,'1 ',   1,   2,  11,     9.408,     2.666,     0.000,     0.000,     0.000,     0.000,   1,    1,  0,     0.000,     0.000,   0
  2047,'2 ',   1,   2,  11,     5.547,     1.572,     0.000,     0.000,     0.000,     0.000,   1,    1,  0,     0.000,     0.000,   0
  2048,'1 ',   1,   2,  10,     6.417,     1.818,     0.000,     0.000,     0.000,     0.000,   1,    1,  0,     0.000,     0.000,   0
  2049,'1 ',   1,   2,  10,     0.486,     0.138,     0.000,     0.000,     0.000,     0.000,   1,    1,  0,     0.000,     0.000,   0
  2049,'2 ',   1,   2,  10,     0.579,     0.164,     0.000,     0.000,     0.000,     0.000,   1,    1,  0,     0.000,     0.000,   0
  2049,'3 ',   1,   2,  10,    10.506,     2.977,     0.000,     0.000,     0.000,     0.000,   1,    1,  0,     0.000,     0.000,   0
  2050,'1 ',   1,   2,  11,     3.657,     1.036,     0.000,     0.000,     0.000,     0.000,   1,    1,  0,     0.000,     0.000,   0
  2051,'1 ',   1,   2,  11,    17.850,     5.057,     0.000,     0.000,     0.000,     0.000,   1,    1,  0,     0.000,     0.000,   0
  2052,'1 ',   1,   2,  10,     9.459,     2.680,     0.000,     0.000,     0.000,     0.000,   1,    1,  0,     0.000,     0.000,   0
  2052,'2 ',   1,   2,  10,    15.378,     4.357,     0.000,     0.000,     0.000,     0.000,   1,    1,  0,     0.000,     0.000,   0
  2053,'1 ',   1,   2,  11,    29.133,     8.254,     0.000,     0.000,     0.000,     0.000,   1,    1,  0,     0.000,     0.000,   0
  2055,'1 ',   1,   2,  11,    49.620,    14.059,     0.000,     0.000,     0.000,     0.000,   1,    1,  0,     0.000,     0.000,   0
  2060,'1 ',   1,   2,  11,     3.795,     1.075,     0.000,     0.000,     0.000,     0.000,   1,    1,  0,     0.000,     0.000,   0
  2063,'1 ',   1,   2,  11,    65.616,    18.591,     0.000,     0.000,     0.000,     0.000,   1,    1,  0,     0.000,     0.000,   0
  2064,'1 ',   1,   2,  11,     7.038,     1.994,     0.000,     0.000,     0.000,     0.000,   1,    1,  0,     0.000,     0.000,   0
  2064,'2 ',   1,   2,  11,     3.009,     0.853,     0.000,     0.000,     0.000,     0.000,   1,    1,  0,     0.000,     0.000,   0
  2065,'1 ',   1,   2,  11,    78.360,    22.202,     0.000,     0.000,     0.000,     0.000,   1,    1,  0,     0.000,     0.000,   0
  2066,'1 ',   1,   2,  10,     4.050,     1.147,     0.000,     0.000,     0.000,     0.000,   1,    1,  0,     0.000,     0.000,   0
  2066,'2 ',   1,   2,  10,     2.541,     0.720,     0.000,     0.000,     0.000,     0.000,   1,    1,  0,     0.000,     0.000,   0
  2066,'3 ',   1,   2,  10,     0.522,     0.148,     0.000,     0.000,     0.000,     0.000,   1,    1,  0,     0.000,     0.000,   0
  2067,'1 ',   1,   2,  11,    53.967,    15.291,     0.000,     0.000,     0.000,     0.000,   1,    1,  0,     0.000,     0.000,   0
  2068,'1 ',   1,   2,  11,     5.760,     1.632,     0.000,     0.000,     0.000,     0.000,   1,    1,  0,     0.000,     0.000,   0
  2069,'1 ',   1,   2,  11,    21.924,     6.212,     0.000,     0.000,     0.000,     0.000,   1,    1,  0,     0.000,     0.000,   0
  2072,'1 ',   1,   2,  11,     9.705,     2.750,     0.000,     0.000,     0.000,     0.000,   1,    1,  0,     0.000,     0.000,   0
  2079,'1 ',   1,   2,  10,     4.479,     1.269,     0.000,     0.000,     0.000,     0.000,   1,    1,  0,     0.000,     0.000,   0
  2080,'1 ',   1,   2,  11,    16.932,     4.797,     0.000,     0.000,     0.000,     0.000,   1,    1,  0,     0.000,     0.000,   0
  2081,'1 ',   1,   2,  11,     4.464,     1.265,     0.000,     0.000,     0.000,     0.000,   1,    1,  0,     0.000,     0.000,   0
  2082,'1 ',   1,   2,  11,    59.031,    16.725,     0.000,     0.000,     0.000,     0.000,   1,    1,  0,     0.000,     0.000,   0
  2086,'1 ',   1,   2,  11,     2.193,     0.621,     0.000,     0.000,     0.000,     0.000,   1,    1,  0,     0.000,     0.000,   0
  2087,'1 ',   1,   2,  10,     7.896,     2.237,     0.000,     0.000,     0.000,     0.000,   1,    1,  0,     0.000,     0.000,   0
  2090,'1 ',   1,   2,  11,     2.424,     0.687,     0.000,     0.000,     0.000,     0.000,   1,    1,  0,     0.000,     0.000,   0
  2091,'1 ',   1,   2,  10,    17.046,     4.830,     0.000,     0.000,     0.000,     0.000,   1,    1,  0,     0.000,     0.000,   0
  2092,'1 ',   1,   2,  11,    24.108,     6.831,     0.000,     0.000,     0.000,     0.000,   1,    1,  0,     0.000,     0.000,   0
  2106,'1 ',   1,   2,  11,    14.403,     4.081,     0.000,     0.000,     0.000,     0.000,   1,    1,  0,     0.000,     0.000,   0
  2107,'1 ',   1,   2,  11,    74.151,    21.009,     0.000,     0.000,     0.000,     0.000,   1,    1,  0,     0.000,     0.000,   0
  2108,'1 ',   1,   2,  10,     2.145,     0.608,     0.000,     0.000,     0.000,     0.000,   1,    1,  0,     0.000,     0.000,   0
  2109,'1 ',   1,   2,  11,    33.810,     9.579,     0.000,     0.000,     0.000,     0.000,   1,    1,  0,     0.000,     0.000,   0
  2110,'1 ',   1,   2,  11,     8.589,     2.434,     0.000,     0.000,     0.000,     0.000,   1,    1,  0,     0.000,     0.000,   0
  2111,'1 ',   1,   2,  11,     7.002,     1.984,     0.000,     0.000,     0.000,     0.000,   1,    1,  0,     0.000,     0.000,   0
  2111,'2 ',   1,   2,  11,     6.951,     1.969,     0.000,     0.000,     0.000,     0.000,   1,    1,  0,     0.000,     0.000,   0
  2112,'1 ',   1,   2,  11,     4.542,     1.287,     0.000,     0.000,     0.000,     0.000,   1,    1,  0,     0.000,     0.000,   0
  2114,'1 ',   1,   2,  11,    70.776,    20.053,     0.000,     0.000,     0.000,     0.000,   1,    1,  0,     0.000,     0.000,   0
  2121,'1 ',   1,   2,  11,     2.334,     0.661,     0.000,     0.000,     0.000,     0.000,   1,    1,  0,     0.000,     0.000,   0
  2122,'1 ',   1,   2,  11,     6.723,     1.905,     0.000,     0.000,     0.000,     0.000,   1,    1,  0,     0.000,     0.000,   0
  2124,'1 ',   1,   2,  11,    21.285,     6.031,     0.000,     0.000,     0.000,     0.000,   1,    1,  0,     0.000,     0.000,   0
  2125,'1 ',   1,   2,  11,     4.056,     1.149,     0.000,     0.000,     0.000,     0.000,   1,    1,  0,     0.000,     0.000,   0
  2126,'1 ',   1,   2,  11,    14.235,     4.033,     0.000,     0.000,     0.000,     0.000,   1,    1,  0,     0.000,     0.000,   0
  2129,'1 ',   1,   2,  11,     6.633,     1.879,     0.000,     0.000,     0.000,     0.000,   1,    1,  0,     0.000,     0.000,   0
  2132,'1 ',   1,   2,  10,    11.940,     3.383,     0.000,     0.000,     0.000,     0.000,   1,    1,  0,     0.000,     0.000,   0
  2133,'1 ',   1,   2,  11,     5.679,     1.609,     0.000,     0.000,     0.000,     0.000,   1,    1,  0,     0.000,     0.000,   0
  3002,'1 ',   1,   3,  28,   112.860,    31.977,     0.000,     0.000,     0.000,     0.000,   1,    1,  0,     0.000,     0.000,   0
  3005,'1 ',   1,   3,  28,     0.792,     0.224,     0.000,     0.000,     0.000,     0.000,   1,    1,  0,     0.000,     0.000,   0
  3005,'2 ',   1,   3,  28,     0.825,     0.234,     0.000,     0.000,     0.000,     0.000,   1,    1,  0,     0.000,     0.000,   0
  3005,'3 ',   1,   3,  28,     5.724,     1.622,     0.000,     0.000,     0.000,     0.000,   1,    1,  0,     0.000,     0.000,   0
  3006,'1 ',   1,   3,  27,     7.347,     2.082,     0.000,     0.000,     0.000,     0.000,   1,    1,  0,     0.000,     0.000,   0
  3007,'1 ',   1,   3,  27,    14.964,     4.240,     0.000,     0.000,     0.000,     0.000,   1,    1,  0,     0.000,     0.000,   0
  3008,'1 ',   1,   3,  27,    18.996,     5.382,     0.000,     0.000,     0.000,     0.000,   1,    1,  0,     0.000,     0.000,   0
  3008,'2 ',   1,   3,  27,     0.813,     0.230,     0.000,     0.000,     0.000,     0.000,   1,    1,  0,     0.000,     0.000,   0
  3009,'1 ',   1,   3,  28,    12.540,     3.553,     0.000,     0.000,     0.000,     0.000,   1,    1,  0,     0.000,     0.000,   0
  3010,'1 ',   1,   3,  28,     4.671,     1.323,     0.000,     0.000,     0.000,     0.000,   1,    1,  0,     0.000,     0.000,   0
  3011,'1 ',   1,   3,  28,    18.981,     5.378,     0.000,     0.000,     0.000,     0.000,   1,    1,  0,     0.000,     0.000,   0
  3011,'2 ',   1,   3,  28,     8.157,     2.311,     0.000,     0.000,     0.000,     0.000,   1,    1,  0,     0.000,     0.000,   0
  3012,'1 ',   1,   3,  28,     0.564,     0.160,     0.000,     0.000,     0.000,     0.000,   1,    1,  0,     0.000,     0.000,   0
  3013,'1 ',   1,   3,  27,    64.557,    18.291,     0.000,     0.000,     0.000,     0.000,   1,    1,  0,     0.000,     0.000,   0
  3014,'1 ',   1,   3,  28,    22.002,     6.234,     0.000,     0.000,     0.000,     0.000,   1,    1,  0,     0.000,     0.000,   0
  3015,'1 ',   1,   3,  27,     5.364,     1.520,     0.000,     0.000,     0.000,     0.000,   1,    1,  0,     0.000,     0.000,   0
  3021,'1 ',   1,   3,  27,     0.525,     0.149,     0.000,     0.000,     0.000,     0.000,   1,    1,  0,     0.000,     0.000,   0
  3021,'2 ',   1,   3,  27,     1.416,     0.401,     0.000,     0.000,     0.000,     0.000,   1,    1,  0,     0.000,     0.000,   0
  3022,'1 ',   1,   3,  27,    24.591,     6.967,     0.000,     0.000,     0.000,     0.000,   1,    1,  0,     0.000,     0.000,   0
  3023,'1 ',   1,   3,  27,    10.407,     2.949,     0.000,     0.000,     0.000,     0.000,   1,    1,  0,     0.000,     0.000,   0
  3024,'1 ',   1,   3,  28,    10.131,     2.870,     0.000,     0.000,     0.000,     0.000,   1,    1,  0,     0.000,     0.000,   0
  3025,'1 ',   1,   3,  28,    13.674,     3.874,     0.000,     0.000,     0.000,     0.000,   1,    1,  0,     0.000,     0.000,   0
  3029,'1 ',   1,   3,  28,     4.866,     1.379,     0.000,     0.000,     0.000,     0.000,   1,    1,  0,     0.000,     0.000,   0
  3030,'1 ',   1,   3,  27,   129.720,    36.754,     0.000,     0.000,     0.000,     0.000,   1,    1,  0,     0.000,     0.000,   0
  3031,'1 ',   1,   3,  27,    14.733,     4.174,     0.000,     0.000,     0.000,     0.000,   1,    1,  0,     0.000,     0.000,   0
  3032,'1 ',   1,   3,  27,    72.864,    20.645,     0.000,     0.000,     0.000,     0.000,   1,    1,  0,     0.000,     0.000,   0
  3035,'1 ',   1,   3,  28,     3.465,     0.982,     0.000,     0.000,     0.000,     0.000,   1,    1,  0,     0.000,     0.000,   0
  3036,'1 ',   1,   3,  28,     1.299,     0.368,     0.000,     0.000,     0.000,     0.000,   1,    1,  0,     0.000,     0.000,   0
  3036,'2 ',   1,   3,  28,     4.503,     1.276,     0.000,     0.000,     0.000,     0.000,   1,    1,  0,     0.000,     0.000,   0
  3040,'1 ',   1,   3,  27,    14.607,     4.139,     0.000,     0.000,     0.000,     0.000,   1,    1,  0,     0.000,     0.000,   0
  3042,'1 ',   1,   3,  27,     5.016,     1.421,     0.000,     0.000,     0.000,     0.000,   1,    1,  0,     0.000,     0.000,   0
  3042,'2 ',   1,   3,  27,     3.738,     1.059,     0.000,     0.000,     0.000,     0.000,   1,    1,  0,     0.000,     0.000,   0
  3049,'1 ',   1,   3,  27,    10.584,     2.999,     0.000,     0.000,     0.000,     0.000,   1,    1,  0,     0.000,     0.000,   0
  3051,'1 ',   1,   3,  28,     0.843,     0.239,     0.000,     0.000,     0.000,     0.000,   1,    1,  0,     0.000,     0.000,   0
  3051,'2 ',   1,   3,  28,   144.447,    40.927,     0.000,     0.000,     0.000,     0.000,   1,    1,  0,     0.000,     0.000,   0
  3052,'1 ',   1,   3,  28,     8.076,     2.288,     0.000,     0.000,     0.000,     0.000,   1,    1,  0,     0.000,     0.000,   0
  3066,'1 ',   1,   3,  28,    22.035,     6.243,     0.000,     0.000,     0.000,     0.000,   1,    1,  0,     0.000,     0.000,   0
  3069,'1 ',   1,   3,  27,     3.813,     1.080,     0.000,     0.000,     0.000,     0.000,   1,    1,  0,     0.000,     0.000,   0
  3072,'1 ',   1,   3,  27,     5.985,     1.696,     0.000,     0.000,     0.000,     0.000,   1,    1,  0,     0.000,     0.000,   0
  3075,'1 ',   1,   3,  28,    12.183,     3.452,     0.000,     0.000,     0.000,     0.000,   1,    1,  0,     0.000,     0.000,   0
  3076,'1 ',   1,   3,  28,    10.794,     3.058,     0.000,     0.000,     0.000,     0.000,   1,    1,  0,     0.000,     0.000,   0
  3077,'1 ',   1,   3,  27,    68.655,    19.452,     0.000,     0.000,     0.000,     0.000,   1,    1,  0,     0.000,     0.000,   0
  3093,'1 ',   1,   3,  28,     5.046,     1.430,     0.000,     0.000,     0.000,     0.000,   1,    1,  0,     0.000,     0.000,   0
  3099,'1 ',   1,   3,  27,    12.078,     3.422,     0.000,     0.000,     0.000,     0.000,   1,    1,  0,     0.000,     0.000,   0
  3100,'1 ',   1,   3,  27,     8.526,     2.416,     0.000,     0.000,     0.000,     0.000,   1,    1,  0,     0.000,     0.000,   0
  3101,'1 ',   1,   3,  28,     0.105,     0.030,     0.000,     0.000,     0.000,     0.000,   1,    1,  0,     0.000,     0.000,   0
  3101,'2 ',   1,   3,  28,     2.793,     0.791,     0.000,     0.000,     0.000,     0.000,   1,    1,  0,     0.000,     0.000,   0
  3101,'3 ',   1,   3,  28,     6.534,     1.851,     0.000,     0.000,     0.000,     0.000,   1,    1,  0,     0.000,     0.000,   0
  3102,'1 ',   1,   3,  27,    75.255,    21.322,     0.000,     0.000,     0.000,     0.000,   1,    1,  0,     0.000,     0.000,   0
  3103,'1 ',   1,   3,  27,     0.333,     0.094,     0.000,     0.000,     0.000,     0.000,   1,    1,  0,     0.000,     0.000,   0
  3103,'2 ',   1,   3,  27,    38.985,    11.046,     0.000,     0.000,     0.000,     0.000,   1,    1,  0,     0.000,     0.000,   0
...
0 / END OF LOAD DATA, BEGIN FIXED SHUNT DATA
@!   I,'ID',STATUS,  GL,        BL
  2017,'2 ',1,     0.000,  -100.000
  2096,'2 ',1,     0.000,   -61.166
  3051,'2 ',0,     0.000,    80.000
  8005,'1 ',0,     0.000,   100.000
0 / END OF FIXED SHUNT DATA, BEGIN GENERATOR DATA
@!   I,'ID',      PG,        QG,        QT,        QB,     VS,    IREG,     MBASE,     ZR,         ZX,         RT,         XT,     GTAP,STAT, RMPCT,      PT,        PB,    O1,    F1,  O2,    F2,  O3,    F3,  O4,    F4,WMOD, WPF,NREG
  1004,'1 ',   158.250,   -30.380,    44.940,   -30.380,1.01000,  1004,   253.200, 0.00000E+0, 1.00000E+0, 0.00000E+0, 0.00000E+0,1.00000,1,  100.0,   211.000,    63.300,   1,1.0000,   0,   1.0,   0,   1.0,   0,   1.0, 1, 1.0000
  1006,'1 ',    25.730,    -4.354,     7.310,    -4.940,1.00000,  1006,    41.160, 0.00000E+0, 1.00000E+0, 0.00000E+0, 0.00000E+0,1.00000,1,  100.0,    34.300,    10.290,   1,1.0000,   0,   1.0,   0,   1.0,   0,   1.0, 1, 1.0000
  1009,'1 ',    61.870,   -11.880,    17.570,   -11.880,1.00000,  1009,    99.000, 0.00000E+0, 1.00000E+0, 0.00000E+0, 0.00000E+0,1.00000,1,  100.0,    82.500,    24.750,   1,1.0000,   0,   1.0,   0,   1.0,   0,   1.0, 1, 1.0000
  1011,'1 ',     9.972,     0.000,     0.000,     0.000,1.00000,  1011,    12.000, 0.00000E+0, 1.00000E+0, 0.00000E+0, 0.00000E+0,1.00000,1,  100.0,    10.000,     3.000,   1,1.0000
  1021,'1 ',   149.630,   -23.151,    42.490,   -28.730,1.00000,  1021,   239.400, 0.00000E+0, 1.00000E+0, 0.00000E+0, 0.00000E+0,1.00000,1,  100.0,   199.500,    59.850,   1,1.0000,   0,   1.0,   0,   1.0,   0,   1.0, 1, 1.0000
  1023,'1 ',   135.000,     2.262,    38.340,   -25.920,1.01000,  1023,   216.000, 0.00000E+0, 1.00000E+0, 0.00000E+0, 0.00000E+0,1.00000,1,  100.0,   180.000,    54.000,   1,1.0000,   0,   1.0,   0,   1.0,   0,   1.0, 1, 1.0000
  1026,'1 ',    93.150,    -3.423,    26.450,   -17.880,1.00000,  1026,   149.040, 0.00000E+0, 1.00000E+0, 0.00000E+0, 0.00000E+0,1.00000,1,  100.0,   124.200,    37.260,   1,1.0000,   0,   1.0,   0,   1.0,   0,   1.0, 1, 1.0000
  1033,'1 ',   208.500,   -40.030,    59.210,   -40.030,1.00000,  1033,   333.600, 0.00000E+0, 1.00000E+0, 0.00000E+0, 0.00000E+0,1.00000,1,  100.0,   278.000,    83.400,   1,1.0000,   0,   1.0,   0,   1.0,   0,   1.0, 1, 1.0000
  1035,'1 ',    67.500,    -6.868,    19.170,   -12.960,1.00000,  1035,   108.000, 0.00000E+0, 1.00000E+0, 0.00000E+0, 0.00000E+0,1.00000,1,  100.0,    90.000,    27.000,   1,1.0000,   0,   1.0,   0,   1.0,   0,   1.0, 1, 1.0000
  1039,'1 ',   110.630,   -16.653,    31.420,   -21.240,1.00000,  1039,   177.000, 0.00000E+0, 1.00000E+0, 0.00000E+0, 0.00000E+0,1.00000,1,  100.0,   147.500,    44.250,   1,1.0000,   0,   1.0,   0,   1.0,   0,   1.0, 1, 1.0000
  1042,'1 ',     0.000,   -10.549,    25.960,   -17.550,1.00000,  1042,   146.280, 0.00000E+0, 1.00000E+0, 0.00000E+0, 0.00000E+0,1.00000,0,  100.0,   121.900,    36.570,   1,1.0000,   0,   1.0,   0,   1.0,   0,   1.0, 1, 1.0000
  1043,'1 ',    44.100,    -1.162,    12.520,    -8.470,1.00000,  1043,    70.560, 0.00000E+0, 1.00000E+0, 0.00000E+0, 0.00000E+0,1.00000,1,  100.0,    58.800,    17.640,   1,1.0000,   0,   1.0,   0,   1.0,   0,   1.0, 1, 1.0000
  1048,'1 ',     0.000,     0.000,   165.530,   -36.100,1.00000,  1048,   390.240, 0.00000E+0, 1.01700E-1, 0.00000E+0, 0.00000E+0,1.00000,0,  100.0,   325.200,    97.560,   1,1.0000
  1049,'1 ',     0.000,     0.000,   165.530,   -36.100,1.00000,  1049,   390.240, 0.00000E+0, 1.34900E-1, 0.00000E+0, 0.00000E+0,1.00000,0,  100.0,   325.200,    97.560,   1,1.0000
  1050,'1 ',    89.150,    -4.140,    45.500,    -9.920,1.00000,  1050,   107.280, 0.00000E+0, 2.77700E-1, 0.00000E+0, 0.00000E+0,1.00000,1,  100.0,    89.400,    26.820,   1,1.0000
  1051,'1 ',    89.150,    -2.881,    45.500,    -9.920,1.00000,  1051,   107.280, 0.00000E+0, 3.17400E-1, 0.00000E+0, 0.00000E+0,1.00000,1,  100.0,    89.400,    26.820,   1,1.0000
  1052,'1 ',    89.150,    -7.036,    45.500,    -9.920,1.00000,  1052,   107.280, 0.00000E+0, 2.78100E-1, 0.00000E+0, 0.00000E+0,1.00000,1,  100.0,    89.400,    26.820,   1,1.0000
  1053,'1 ',     0.000,     0.000,    91.010,   -19.850,1.00000,  1053,   214.560, 0.00000E+0, 1.68700E-1, 0.00000E+0, 0.00000E+0,1.00000,0,  100.0,   178.800,    53.640,   1,1.0000
  1057,'1 ',     0.000,    -7.656,    25.560,   -17.280,1.00000,  1057,   144.000, 0.00000E+0, 1.00000E+0, 0.00000E+0, 0.00000E+0,1.00000,0,  100.0,   120.000,    36.000,   1,1.0000,   0,   1.0,   0,   1.0,   0,   1.0, 1, 1.0000
  1059,'1 ',     0.000,     0.000,     2.850,    -0.620,1.04000,  1059,     6.720, 0.00000E+0, 2.27700E-1, 0.00000E+0, 0.00000E+0,1.00000,0,  100.0,     5.600,     1.680,   1,1.0000
  1060,'1 ',     0.000,     0.000,     1.020,    -0.220,1.04000,  1060,     2.400, 0.00000E+0, 1.63000E-1, 0.00000E+0, 0.00000E+0,1.00000,0,  100.0,     2.000,     0.600,   1,1.0000
  1062,'1 ',     0.000,     0.000,     0.000,     0.000,1.01000,  1062,     1.800, 0.00000E+0, 1.00000E+0, 0.00000E+0, 0.00000E+0,1.00000,0,  100.0,     1.500,     0.450,   1,1.0000
  1063,'1 ',     0.000,     0.000,     0.000,     0.000,1.01000,  1063,   276.000, 0.00000E+0, 1.00000E+0, 0.00000E+0, 0.00000E+0,1.00000,0,  100.0,   230.000,    69.000,   1,1.0000
  1066,'1 ',   106.880,    -0.830,    30.350,   -20.520,1.00000,  1066,   171.000, 0.00000E+0, 1.00000E+0, 0.00000E+0, 0.00000E+0,1.00000,1,  100.0,   142.500,    42.750,   1,1.0000,   0,   1.0,   0,   1.0,   0,   1.0, 1, 1.0000
  1070,'1 ',   120.380,    25.495,    34.190,   -23.110,1.04000,  1070,   192.600, 0.00000E+0, 1.00000E+0, 0.00000E+0, 0.00000E+0,1.00000,1,  100.0,   160.500,    48.150,   1,1.0000,   0,   1.0,   0,   1.0,   0,   1.0, 1, 1.0000
  1072,'1 ',   191.594,    30.817,    97.800,   -21.330,1.01000,  1072,   230.560, 0.00000E+0, 3.08200E-1, 0.00000E+0, 0.00000E+0,1.00000,1,  100.0,   192.130,    57.640,   1,1.0000
  1073,'1 ',   191.594,    35.969,    97.800,   -21.330,1.01000,  1073,   230.560, 0.00000E+0, 1.94800E-1, 0.00000E+0, 0.00000E+0,1.00000,1,  100.0,   192.130,    57.640,   1,1.0000
  1074,'1 ',   191.594,    32.681,    97.800,   -21.330,1.01000,  1074,   230.560, 0.00000E+0, 2.09600E-1, 0.00000E+0, 0.00000E+0,1.00000,1,  100.0,   192.130,    57.640,   1,1.0000
  1075,'1 ',   191.594,    34.381,    97.800,   -21.330,1.01000,  1075,   230.560, 0.00000E+0, 1.23700E-1, 0.00000E+0, 0.00000E+0,1.00000,1,  100.0,   192.130,    57.640,   1,1.0000
  1076,'1 ',     0.000,     0.000,    97.800,   -21.330,1.01000,  1076,   230.560, 0.00000E+0, 1.06600E-1, 0.00000E+0, 0.00000E+0,1.00000,0,  100.0,   192.130,    57.640,   1,1.0000
  1077,'1 ',     0.000,     0.000,    97.800,   -21.330,1.01000,  1077,   230.560, 0.00000E+0, 1.53800E-1, 0.00000E+0, 0.00000E+0,1.00000,0,  100.0,   192.130,    57.640,   1,1.0000
  1078,'1 ',    95.233,    18.159,    48.610,   -10.600,1.01000,  1078,   114.600, 0.00000E+0, 2.85200E-1, 0.00000E+0, 0.00000E+0,1.00000,1,  100.0,    95.500,    28.650,   1,1.0000
  1079,'1 ',    95.233,   -10.600,    48.610,   -10.600,1.01000,  1079,   114.600, 0.00000E+0, 1.72600E-1, 0.00000E+0, 0.00000E+0,1.00000,1,  100.0,    95.500,    28.650,   1,1.0000
  1080,'1 ',    95.233,    14.904,    48.610,   -10.600,1.01000,  1080,   114.600, 0.00000E+0, 1.54300E-1, 0.00000E+0, 0.00000E+0,1.00000,1,  100.0,    95.500,    28.650,   1,1.0000
  1081,'1 ',     0.000,     0.000,   145.830,   -31.800,1.01000,  1081,   343.800, 0.00000E+0, 1.49600E-1, 0.00000E+0, 0.00000E+0,1.00000,0,  100.0,   286.500,    85.950,   1,1.0000
  1082,'1 ',   112.500,   -21.600,    31.950,   -21.600,1.00000,  1082,   180.000, 0.00000E+0, 1.00000E+0, 0.00000E+0, 0.00000E+0,1.00000,1,  100.0,   150.000,    45.000,   1,1.0000,   0,   1.0,   0,   1.0,   0,   1.0, 1, 1.0000
  1084,'1 ',    86.620,    24.600,    24.600,   -16.630,1.04000,  1084,   138.600, 0.00000E+0, 1.00000E+0, 0.00000E+0, 0.00000E+0,1.00000,1,  100.0,   115.500,    34.650,   1,1.0000,   0,   1.0,   0,   1.0,   0,   1.0, 1, 1.0000
  1088,'1 ',    56.250,    -0.293,    15.970,   -10.800,1.00000,  1088,    90.000, 0.00000E+0, 1.00000E+0, 0.00000E+0, 0.00000E+0,1.00000,1,  100.0,    75.000,    22.500,   1,1.0000,   0,   1.0,   0,   1.0,   0,   1.0, 1, 1.0000
  1090,'1 ',   114.370,    31.032,    32.480,   -21.960,1.02000,  1090,   183.000, 0.00000E+0, 1.00000E+0, 0.00000E+0, 0.00000E+0,1.00000,1,  100.0,   152.500,    45.750,   1,1.0000,   0,   1.0,   0,   1.0,   0,   1.0, 1, 1.0000
  1090,'2 ',    27.000,     7.670,     7.670,    -5.180,1.02000,  1090,    43.200, 0.00000E+0, 1.00000E+0, 0.00000E+0, 0.00000E+0,1.00000,1,  100.0,    36.000,    10.800,   1,1.0000,   0,   1.0,   0,   1.0,   0,   1.0, 1, 1.0000
  2004,'1 ',     0.000,     0.000,   199.430,   -43.490,1.02000,  2004,   470.160, 0.00000E+0, 1.06400E-1, 0.00000E+0, 0.00000E+0,1.00000,0,  100.0,   391.800,   117.540,   1,1.0000
  2005,'1 ',     0.000,     0.000,   199.430,   -43.490,1.02000,  2005,   470.160, 0.00000E+0, 2.27500E-1, 0.00000E+0, 0.00000E+0,1.00000,0,  100.0,   391.800,   117.540,   1,1.0000
  2006,'1 ',     0.000,     0.000,   199.430,   -43.490,1.02000,  2006,   470.160, 0.00000E+0, 2.00400E-1, 0.00000E+0, 0.00000E+0,1.00000,0,  100.0,   391.800,   117.540,   1,1.0000
  2013,'1 ',   150.450,   -28.890,    42.730,   -28.890,1.00000,  2013,   240.720, 0.00000E+0, 1.00000E+0, 0.00000E+0, 0.00000E+0,1.00000,1,  100.0,   200.600,    60.180,   1,1.0000,   0,   1.0,   0,   1.0,   0,   1.0, 1, 1.0000
  2019,'1 ',     0.000,    46.430,    46.430,   -31.390,1.04000,  2019,   261.600, 0.00000E+0, 1.00000E+0, 0.00000E+0, 0.00000E+0,1.00000,0,  100.0,   218.000,    65.400,   1,1.0000,   0,   1.0,   0,   1.0,   0,   1.0, 1, 1.0000
  2023,'1 ',    83.097,    18.160,    42.420,    -9.250,1.02000,  2023,   100.000, 0.00000E+0, 2.94400E-1, 0.00000E+0, 0.00000E+0,1.00000,1,  100.0,    83.330,    25.000,   1,1.0000
  2024,'1 ',   166.205,    26.527,    84.830,   -18.500,1.02000,  2024,   200.000, 0.00000E+0, 1.50800E-1, 0.00000E+0, 0.00000E+0,1.00000,1,  100.0,   166.670,    50.000,   1,1.0000
  2042,'1 ',    59.700,   -11.460,    16.950,   -11.460,1.01000,  2042,    95.520, 0.00000E+0, 1.00000E+0, 0.00000E+0, 0.00000E+0,1.00000,1,  100.0,    79.600,    23.880,   1,1.0000,   0,   1.0,   0,   1.0,   0,   1.0, 1, 1.0000
  2056,'1 ',     0.000,     0.000,     2.800,    -0.730,0.99000,  2056,     7.200, 0.00000E+0, 2.49200E-1, 0.00000E+0, 0.00000E+0,1.00000,0,  100.0,     6.000,     1.800,   1,1.0000
  2057,'1 ',   573.575,   -47.070,   335.520,   -87.840,0.99000,  2057,   864.000, 0.00000E+0, 1.77000E-1, 0.00000E+0, 0.00000E+0,1.00000,1,  100.0,   720.000,   216.000,   1,1.0000
  2059,'1 ',    60.000,   -11.520,    17.040,   -11.520,1.00000,  2059,    96.000, 0.00000E+0, 1.00000E+0, 0.00000E+0, 0.00000E+0,1.00000,1,  100.0,    80.000,    24.000,   1,1.0000,   0,   1.0,   0,   1.0,   0,   1.0, 1, 1.0000
  2062,'1 ',   101.550,    -4.842,    28.840,   -19.500,1.02000,  2062,   162.480, 0.00000E+0, 1.00000E+0, 0.00000E+0, 0.00000E+0,1.00000,1,  100.0,   135.400,    40.620,   1,1.0000,   0,   1.0,   0,   1.0,   0,   1.0, 1, 1.0000
  2071,'1 ',   112.500,    -0.815,    31.950,   -21.600,1.00000,  2071,   180.000, 0.00000E+0, 1.00000E+0, 0.00000E+0, 0.00000E+0,1.00000,1,  100.0,   150.000,    45.000,   1,1.0000,   0,   1.0,   0,   1.0,   0,   1.0, 1, 1.0000
  2076,'1 ',    22.500,     6.390,     6.390,    -4.320,1.04000,  2076,    36.000, 0.00000E+0, 1.00000E+0, 0.00000E+0, 0.00000E+0,1.00000,1,  100.0,    30.000,     9.000,   1,1.0000,   0,   1.0,   0,   1.0,   0,   1.0, 1, 1.0000
...